[General]
cmdenv-express-mode = false
cmdenv-autoflush = false
cmdenv-redirect-output = true
cmdenv-output-file = "simulation.log"
cmdenv-log-prefix = "[%l] [Time=%t]"
sim-time-limit = 180s
**.cmdenv-log-level = warn
**.phy.cmdenv-log-level = error
**.mac.cmdenv-log-level = error

network = lte.simulations.rcs.Intersection
debug-on-errors = true
print-undisposed = false

#repeat = 1

**.statistic-recording = true
**.scalar-recording = true
**.vector-recording = true
output-vector-file = "results/${configname}/${runid}.vec"
output-scalar-file = "results/${configname}/${runid}.sca"

*.playgroundSizeX = 1000m
*.playgroundSizeY = 1000m
*.playgroundSizeZ = 30m

num-rngs = 4

*.traci.mapper.rng-0 = 1

**.channelControl.pMax = 10W
**.channelControl.alpha = 1.0
**.channelControl.carrierFrequency = 6000e+6Hz

**.lteNic.phy.channelModel = xmldoc("config_channel.xml")
**.feedbackComputation = xmldoc("config_channel.xml")
**.rbAllocationType = "localized"
**.feedbackType = "ALLBANDS"
**.feedbackGeneratorType = "IDEAL"
**.maxHarqRtx = 0
**.deployer.ruRange = 50
**.deployer.ruTxPower = "50,50,50;"
**.deployer.antennaCws = "2;" # !!MACRO + RUS (numRus + 1)
**.deployer.numRbDl = 51
**.deployer.numRbUl = 48
**.numBands = 48
**.fbDelay = 1

**.macDelayDl.statistic-recording = false
**.macThroughputDl.statistic-recording = false
**.macDelayUl.statistic-recording = false
**.macThroughputUl.statistic-recording = false
**.macDelayD2D.statistic-recording = false
**.macThroughputD2D.statistic-recording = false
**.macCellThroughputUl.statistic-recording = false
**.macCellThroughputDl.statistic-recording = false
**.macCellThroughputD2D.statistic-recording = false
**.macCellPacketLossDl.statistic-recording = false
**.macCellPacketLossUl.statistic-recording = false
**.macCellPacketLossD2D.statistic-recording = false
**.macPacketLossUl.statistic-recording = false
**.macPacketLossDl.statistic-recording = false
**.macPacketLossD2D.statistic-recording = false
**.macBufferOverFlowDl.statistic-recording = false
**.macBufferOverFlowUl.statistic-recording = false
**.macBufferOverFlowD2D.statistic-recording = false
**.harqErrorRateUl.statistic-recording = false
**.harqErrorRateDl.statistic-recording = false
**.harqErrorRateD2D.statistic-recording = false
**.harqErrorRate_1st_Ul.statistic-recording = false
**.harqErrorRate_1st_Dl.statistic-recording = false
**.harqErrorRate_1st_D2D.statistic-recording = false
**.harqErrorRate_2nd_Ul.statistic-recording = false
**.harqErrorRate_2nd_D2D.statistic-recording = false
**.harqErrorRate_3rd_Ul.statistic-recording = false
**.harqErrorRate_3rd_Dl.statistic-recording = false
**.harqErrorRate_3rd_D2D.statistic-recording = false
**.harqErrorRate_4th_Ul.statistic-recording = false
**.harqErrorRate_4th_Dl.statistic-recording = false
**.harqErrorRate_4th_D2D.statistic-recording = false
**.receivedPacketFromUpperLayer.statistic-recording = false
**.receivedPacketFromLowerLayer.statistic-recording = false
**.sentPacketToUpperLayer.statistic-recording = false
**.sentPacketToLowerLayer.statistic-recording = false
**.measuredItbs.statistic-recording = false
**.pdcpdrop0.statistic-recording = false
**.pdcpdrop1.statistic-recording = false
**.pdcpdrop2.statistic-recording = false
**.pdcpdrop3.statistic-recording = false
**.averageCqiD2D.statistic-recording = false
**.averageCqiDl.statistic-recording = false
**.averageCqiUl.statistic-recording = false

##########################################################
#            VeinsManager parameters                     #
##########################################################
*.veinsManager.moduleType = "lte.corenetwork.nodes.cars.CarNonIp"
*.veinsManager.moduleName = "car"
*.veinsManager.updateInterval = 0.1s
#*.veinsManager.firstStepAt = 10s

##########################################################
#                      Mobility                          #
##########################################################
*.car[*].mobilityType = "VeinsInetMobility"
*.rsu[*].mobilityType = "StationaryMobility"

##########################################################
#                      Network                           #
##########################################################
**.deployer.positionUpdateInterval = 0.1s

*.car[*].d2dCapable = true
*.car[*].mode4D2D = true
*.rsu[*].d2dCapable = true
*.rsu[*].mode4D2D = true
**.amcMode = "D2D"

*.car[*].nicType = "LteNicVUeMode4"
*.rsu[*].nicType = "LteNicVUeMode4"

**.lteNic.d2dCapable = true
**.lteNic.pdcpRrc.ipBased = false
**.lteNic.rlc.ipBased = false
**.lteNic.mac.subchannelSize = 16
**.lteNic.mac.numSubchannels = 3
**.lteNic.mac.probResourceKeep = 0.4
**.lteNic.mac.useCBR = false
**.lteNic.mac.crLimit = false
**.lteNic.mac.rriLookup = false
**.lteNic.mac.dccMechanism = false
**.lteNic.mac.packetDropping = false
**.lteNic.mac.reselectAfter = 1
**.lteNic.mac.adjacencyPSCCHPSSCH = true
**.lteNic.rlc.um.scenario3gpp = false
**.lteNic.phy.subchannelSize = 16
**.lteNic.phy.numSubchannels = 3
**.lteNic.phy.selectionWindowStartingSubframe = 1
**.lteNic.phy.adjacencyPSCCHPSSCH = true
**.lteNic.phy.pStep = 100
**.lteNic.phy.thresholdRSSI = 10
**.ueTxPower = 23
**.lteNic.phy.d2dTxPower = 23

**.usePreconfiguredTxParams = true
**.lteNic.mac.txConfig = xmldoc("sidelink_configuration.xml")

**.fragmentSize = 500B
**.lteNic.mac.queueSize = 10MiB # 0 represent unlimited queue size

##########################################################
#                     Application                        #
##########################################################
[Config Default]
*.car[*].applType = "RcsCarApp"
*.rsu[*].applType = "RcsRsuApp"
*.car[*].appl.RSU_POSITION_X = 220
*.car[*].appl.RSU_POSITION_Y = 220
*.car[*].appl.RSU_ADDR = 1025
**.numCpuCores = 1
# Change this parameter to select other maps
*.veinsManager.launchConfig = xmldoc("maps/paris_100/map.launchd.xml")

[Config Scheme3]
extends = Default
**.HEADER_BYTE_SIZE = 54
**.COIN_REQUEST_BYTE_SIZE = (32 + 54)
**.COIN_ASSIGNMENT_BYTE_SIZE = (32 + 54) # (3263 + 54)
**.COIN_DEPOSIT_BYTE_SIZE = (32 + 54) # (3391 + 54)
**.COIN_DEPOSIT_SIGNATURE_REQUEST_BYTE_SIZE = (62 + 54)
**.COIN_DEPOSIT_SIGNATURE_RESPONSE_BYTE_SIZE = (230 + 54)
**.COIN_SUBMISSION_BYTE_SIZE = (32 + 54) # (3387 + 54)
**.COIN_REQUEST_LATENCY_MEAN = 0.0001
**.COIN_REQUEST_LATENCY_STDDEV = 0.0001
**.COIN_ASSIGNMENT_LATENCY_MEAN = 0.029
**.COIN_ASSIGNMENT_LATENCY_STDDEV = 0.002
**.COIN_DEPOSIT_LATENCY_MEAN = 0.0001
**.COIN_DEPOSIT_LATENCY_STDDEV = 0.0001
**.COIN_DEPOSIT_SIGNATURE_REQUEST_LATENCY_MEAN = 0.041
**.COIN_DEPOSIT_SIGNATURE_REQUEST_LATENCY_STDDEV = 0.003
**.COIN_DEPOSIT_SIGNATURE_RESPONSE_LATENCY_MEAN = 0.0005
**.COIN_DEPOSIT_SIGNATURE_RESPONSE_LATENCY_STDDEV = 0.0005
**.COIN_SUBMISSION_LATENCY_MEAN = 0.001
**.COIN_SUBMISSION_LATENCY_STDDEV = 0.0001

[Config Scheme2]
extends = Default
**.HEADER_BYTE_SIZE = 54
**.COIN_REQUEST_BYTE_SIZE = (32 + 54)
**.COIN_ASSIGNMENT_BYTE_SIZE = (32 + 54) # (4594 + 54)
**.COIN_DEPOSIT_BYTE_SIZE = (32 + 54) # (4722 + 54)
**.COIN_DEPOSIT_SIGNATURE_REQUEST_BYTE_SIZE = (106 + 54)
**.COIN_DEPOSIT_SIGNATURE_RESPONSE_BYTE_SIZE = (232 + 54)
**.COIN_SUBMISSION_BYTE_SIZE = (32 + 54) # (4514 + 54)
**.COIN_REQUEST_LATENCY_MEAN = 0.0001
**.COIN_REQUEST_LATENCY_STDDEV = 0.0001
**.COIN_ASSIGNMENT_LATENCY_MEAN = 0.0095
**.COIN_ASSIGNMENT_LATENCY_STDDEV = 0.00067
**.COIN_DEPOSIT_LATENCY_MEAN = 0.0001
**.COIN_DEPOSIT_LATENCY_STDDEV = 0.0001
**.COIN_DEPOSIT_SIGNATURE_REQUEST_LATENCY_MEAN = 0.0072
**.COIN_DEPOSIT_SIGNATURE_REQUEST_LATENCY_STDDEV = 0.00041
**.COIN_DEPOSIT_SIGNATURE_RESPONSE_LATENCY_MEAN = 0.00011
**.COIN_DEPOSIT_SIGNATURE_RESPONSE_LATENCY_STDDEV = 0.00008
**.COIN_SUBMISSION_LATENCY_MEAN = 0.001
**.COIN_SUBMISSION_LATENCY_STDDEV = 0.0001

[Config Scheme3_PerceptionApp]
extends = Scheme3
*.rsu[*].applType = "RSUPerceptionApp"
*.car[*].applType = "CarPerceptionApp"

[Config Scheme2_PerceptionApp]
extends = Scheme2
*.rsu[*].applType = "RSUPerceptionApp"
*.car[*].applType = "CarPerceptionApp"

[Config Scheme3_AuctionApp]
extends = Scheme3
*.rsu[*].applType = "RSUAuctionApp"
*.car[*].applType = "CarAuctionApp"

[Config Scheme2_AuctionApp]
extends = Scheme2
*.rsu[*].applType = "RSUAuctionApp"
*.car[*].applType = "CarAuctionApp"
