[General]
cmdenv-express-mode = false
cmdenv-autoflush = true
cmdenv-redirect-output = true
cmdenv-output-file = "simulation.log"
cmdenv-log-prefix = "[%l] [Time=%t]"
sim-time-limit = 15s
simtime-resolution = us
#**.cmdenv-log-level = warn
#**.phy.cmdenv-log-level = error
#**.mac.cmdenv-log-level = error

network = lte.simulations.TCPstreetcred.Intersection
debug-on-errors = true
print-undisposed = false

**.statistic-recording = true
**.scalar-recording = false
**.vector-recording = false
output-vector-file = "results/${configname}/${runid}.vec"
output-scalar-file = "results/${configname}/${runid}.sca"

# default (1000.1000)
# beijing (2000,2000)
# paris (1100,1300)
*.playgroundSizeX = 2000m
*.playgroundSizeY = 2000m
*.playgroundSizeZ = 30m

num-rngs = 9

*.traci.mapper.rng-0 = 1

**.channelControl.pMax = 10W
**.channelControl.alpha = 0.1
**.channelControl.carrierFrequency = 6000e+6Hz

**.lteNic.phy.channelModel = xmldoc("config_channel.xml")
**.feedbackComputation = xmldoc("config_channel.xml")
**.rbAllocationType = "localized"
**.feedbackType = "ALLBANDS"
**.feedbackGeneratorType = "IDEAL"
**.maxHarqRtx = 0
**.deployer.ruRange = 50
**.deployer.ruTxPower = "50,50,50;"
**.deployer.antennaCws = "2;" # !!MACRO + RUS (numRus + 1)
**.deployer.numRbDl = 51
**.deployer.numRbUl = 48
**.numBands = 48
**.fbDelay = 1

**.macDelayDl.statistic-recording = false
**.macThroughputDl.statistic-recording = false
**.macDelayUl.statistic-recording = false
**.macThroughputUl.statistic-recording = false
**.macDelayD2D.statistic-recording = false
**.macThroughputD2D.statistic-recording = false
**.macCellThroughputUl.statistic-recording = false
**.macCellThroughputDl.statistic-recording = false
**.macCellThroughputD2D.statistic-recording = false
**.macCellPacketLossDl.statistic-recording = false
**.macCellPacketLossUl.statistic-recording = false
**.macCellPacketLossD2D.statistic-recording = false
**.macPacketLossUl.statistic-recording = false
**.macPacketLossDl.statistic-recording = false
**.macPacketLossD2D.statistic-recording = false
**.macBufferOverFlowDl.statistic-recording = false
**.macBufferOverFlowUl.statistic-recording = false
**.macBufferOverFlowD2D.statistic-recording = false
**.harqErrorRateUl.statistic-recording = false
**.harqErrorRateDl.statistic-recording = false
**.harqErrorRateD2D.statistic-recording = false
**.harqErrorRate_1st_Ul.statistic-recording = false
**.harqErrorRate_1st_Dl.statistic-recording = false
**.harqErrorRate_1st_D2D.statistic-recording = false
**.harqErrorRate_2nd_Ul.statistic-recording = false
**.harqErrorRate_2nd_D2D.statistic-recording = false
**.harqErrorRate_3rd_Ul.statistic-recording = false
**.harqErrorRate_3rd_Dl.statistic-recording = false
**.harqErrorRate_3rd_D2D.statistic-recording = false
**.harqErrorRate_4th_Ul.statistic-recording = false
**.harqErrorRate_4th_Dl.statistic-recording = false
**.harqErrorRate_4th_D2D.statistic-recording = false
**.receivedPacketFromUpperLayer.statistic-recording = false
**.receivedPacketFromLowerLayer.statistic-recording = false
**.sentPacketToUpperLayer.statistic-recording = false
**.sentPacketToLowerLayer.statistic-recording = false
**.measuredItbs.statistic-recording = false
**.pdcpdrop0.statistic-recording = false
**.pdcpdrop1.statistic-recording = false
**.pdcpdrop2.statistic-recording = false
**.pdcpdrop3.statistic-recording = false
**.averageCqiD2D.statistic-recording = false
**.averageCqiDl.statistic-recording = false
**.averageCqiUl.statistic-recording = false

##########################################################
#            VeinsManager parameters                     #
##########################################################
*.veinsManager.moduleType = "lte.corenetwork.nodes.cars.Car"
*.veinsManager.updateInterval = 0.001s

##########################################################
#                      Mobility                          #
##########################################################
*.node[*].mobilityType = "VeinsInetMobility"
*.rsu[*].mobilityType = "StationaryMobility"

##########################################################
#                      Network                           #
##########################################################
**.deployer.positionUpdateInterval = 0.001s

**.d2dCapable = true
**.mode4D2D = true
**.amcMode = "D2D"

*.node[*].nicType = "LteNicUeMode4"
*.rsu[*].nicType = "LteNicUeMode4"

**.lteNic.d2dCapable = true
**.lteNic.pdcpRrc.ipBased = true
**.lteNic.rlc.ipBased = true
**.lteNic.mac.subchannelSize = 16
**.lteNic.mac.numSubchannels = 3
**.lteNic.mac.probResourceKeep = 0.4
**.lteNic.mac.useCBR = false
**.lteNic.mac.crLimit = false
**.lteNic.mac.rriLookup = false
**.lteNic.mac.dccMechanism = false
**.lteNic.mac.packetDropping = false
**.lteNic.mac.reselectAfter = 1
**.lteNic.mac.adjacencyPSCCHPSSCH = true
**.lteNic.rlc.um.scenario3gpp = false
**.lteNic.phy.subchannelSize = 16
**.lteNic.phy.numSubchannels = 3
**.lteNic.phy.selectionWindowStartingSubframe = 1
**.lteNic.phy.adjacencyPSCCHPSSCH = true
**.lteNic.phy.pStep = 100
**.lteNic.phy.thresholdRSSI = 10
**.ueTxPower = 23
**.lteNic.phy.d2dTxPower = 23

**.usePreconfiguredTxParams = true
**.lteNic.mac.txConfig = xmldoc("sidelink_configuration.xml")

**.fragmentSize = 1000B
**.lteNic.mac.queueSize = 10MiB # 0 represent unlimited queue size

##########################################################
#                     Application                        #
##########################################################
[Config Default]
# default (225,225)
# beijing (940,870)
# paris (670,570)
*.node[*].numTcpApps = 1
*.node[*].tcpApp[0].RSU_POSITION_X = 225
*.node[*].tcpApp[0].RSU_POSITION_Y = 225
*.node[*].tcpApp[0].typename = "TCPCarApp"
*.node[*].tcpApp[0].localAddress = "node["+ string(ancestorIndex(1)) + "]"
*.node[*].tcpApp[0].connectAddress = "rsu[0]"
*.node[*].tcpApp[0].connectPort = 1000
*.node[*].tcpApp[0].numCpuCores = 1
*.node[*].macNodeId = ancestorIndex(0) + 1025
*.node[*].masterId = ancestorIndex(0) + 1025

*.rsu[*].numTcpApps = 1
*.rsu[*].tcpApp[0].typename = "TCPRSUApp"
*.rsu[*].tcpApp[0].localPort = 1000
*.rsu[*].tcpApp[0].localAddress = "rsu["+ string(ancestorIndex(1)) + "]"
*.rsu[*].tcpApp[0].numCpuCores = 1
*.rsu[*].macNodeId = 1025
*.rsu[*].masterId = 1025
# Change this parameter to select other maps
*.veinsManager.launchConfig = xmldoc("../streetcred/maps/intersection_500/map.launchd.xml")

[Config Scheme3]
extends = Default
**.COIN_REQUEST_BYTE_SIZE = 32
**.COIN_ASSIGNMENT_BYTE_SIZE = 4895
**.COIN_DEPOSIT_BYTE_SIZE = 5088
**.COIN_DEPOSIT_SIGNATURE_REQUEST_BYTE_SIZE = 62
**.COIN_DEPOSIT_SIGNATURE_RESPONSE_BYTE_SIZE = 230
**.COIN_SUBMISSION_BYTE_SIZE = 5082
**.COIN_REQUEST_LATENCY_MEAN = 0.0001
**.COIN_REQUEST_LATENCY_STDDEV = 0.0001
**.COIN_ASSIGNMENT_LATENCY_MEAN = 0.044
**.COIN_ASSIGNMENT_LATENCY_STDDEV = 0.001
**.COIN_DEPOSIT_LATENCY_MEAN = 0.0001
**.COIN_DEPOSIT_LATENCY_STDDEV = 0.0001
**.COIN_DEPOSIT_SIGNATURE_REQUEST_LATENCY_MEAN = 0.065
**.COIN_DEPOSIT_SIGNATURE_REQUEST_LATENCY_STDDEV = 0.004
**.COIN_DEPOSIT_SIGNATURE_RESPONSE_LATENCY_MEAN = 0.00052
**.COIN_DEPOSIT_SIGNATURE_RESPONSE_LATENCY_STDDEV = 0.00007
**.COIN_SUBMISSION_LATENCY_MEAN = 0.001
**.COIN_SUBMISSION_LATENCY_STDDEV = 0.0001

[Config Scheme2]
extends = Default
**.COIN_REQUEST_BYTE_SIZE = 32
**.COIN_ASSIGNMENT_BYTE_SIZE = 4594
**.COIN_DEPOSIT_BYTE_SIZE = 4722
**.COIN_DEPOSIT_SIGNATURE_REQUEST_BYTE_SIZE = 106
**.COIN_DEPOSIT_SIGNATURE_RESPONSE_BYTE_SIZE = 232
**.COIN_SUBMISSION_BYTE_SIZE = 4514
**.COIN_REQUEST_LATENCY_MEAN = 0.0001
**.COIN_REQUEST_LATENCY_STDDEV = 0.0001
**.COIN_ASSIGNMENT_LATENCY_MEAN = 0.0095
**.COIN_ASSIGNMENT_LATENCY_STDDEV = 0.00067
**.COIN_DEPOSIT_LATENCY_MEAN = 0.0001
**.COIN_DEPOSIT_LATENCY_STDDEV = 0.0001
**.COIN_DEPOSIT_SIGNATURE_REQUEST_LATENCY_MEAN = 0.0072
**.COIN_DEPOSIT_SIGNATURE_REQUEST_LATENCY_STDDEV = 0.00041
**.COIN_DEPOSIT_SIGNATURE_RESPONSE_LATENCY_MEAN = 0.00011
**.COIN_DEPOSIT_SIGNATURE_RESPONSE_LATENCY_STDDEV = 0.00008
**.COIN_SUBMISSION_LATENCY_MEAN = 0.001
**.COIN_SUBMISSION_LATENCY_STDDEV = 0.0001

[Config Scheme3_Pi]
extends = Default
**.COIN_REQUEST_BYTE_SIZE = 32
**.COIN_ASSIGNMENT_BYTE_SIZE = 4895
**.COIN_DEPOSIT_BYTE_SIZE = 5088
**.COIN_DEPOSIT_SIGNATURE_REQUEST_BYTE_SIZE = 62
**.COIN_DEPOSIT_SIGNATURE_RESPONSE_BYTE_SIZE = 230
**.COIN_SUBMISSION_BYTE_SIZE = 5082
**.COIN_REQUEST_LATENCY_MEAN = 0.0001
**.COIN_REQUEST_LATENCY_STDDEV = 0.0001
**.COIN_ASSIGNMENT_LATENCY_MEAN = 0.269
**.COIN_ASSIGNMENT_LATENCY_STDDEV = 0.001
**.COIN_DEPOSIT_LATENCY_MEAN = 0.0001
**.COIN_DEPOSIT_LATENCY_STDDEV = 0.0001
**.COIN_DEPOSIT_SIGNATURE_REQUEST_LATENCY_MEAN = 0.383
**.COIN_DEPOSIT_SIGNATURE_REQUEST_LATENCY_STDDEV = 0.004
**.COIN_DEPOSIT_SIGNATURE_RESPONSE_LATENCY_MEAN = 0.00052
**.COIN_DEPOSIT_SIGNATURE_RESPONSE_LATENCY_STDDEV = 0.00007
**.COIN_SUBMISSION_LATENCY_MEAN = 0.001
**.COIN_SUBMISSION_LATENCY_STDDEV = 0.0001

[Config Scheme2_Pi]
extends = Default
**.COIN_REQUEST_BYTE_SIZE = 32
**.COIN_ASSIGNMENT_BYTE_SIZE = 4594
**.COIN_DEPOSIT_BYTE_SIZE = 4722
**.COIN_DEPOSIT_SIGNATURE_REQUEST_BYTE_SIZE = 106
**.COIN_DEPOSIT_SIGNATURE_RESPONSE_BYTE_SIZE = 232
**.COIN_SUBMISSION_BYTE_SIZE = 4514
**.COIN_REQUEST_LATENCY_MEAN = 0.0001
**.COIN_REQUEST_LATENCY_STDDEV = 0.0001
**.COIN_ASSIGNMENT_LATENCY_MEAN = 0.056
**.COIN_ASSIGNMENT_LATENCY_STDDEV = 0.0004
**.COIN_DEPOSIT_LATENCY_MEAN = 0.0001
**.COIN_DEPOSIT_LATENCY_STDDEV = 0.0001
**.COIN_DEPOSIT_SIGNATURE_REQUEST_LATENCY_MEAN = 0.046
**.COIN_DEPOSIT_SIGNATURE_REQUEST_LATENCY_STDDEV = 0.00036
**.COIN_DEPOSIT_SIGNATURE_RESPONSE_LATENCY_MEAN = 0.00011
**.COIN_DEPOSIT_SIGNATURE_RESPONSE_LATENCY_STDDEV = 0.00008
**.COIN_SUBMISSION_LATENCY_MEAN = 0.001
**.COIN_SUBMISSION_LATENCY_STDDEV = 0.0001
